Version 4.1
SHEET 1 1412 1060
WIRE 192 -32 -16 -32
WIRE 384 -32 272 -32
WIRE 144 16 112 16
WIRE 384 64 384 -32
WIRE 512 64 384 64
WIRE 240 96 112 96
WIRE 512 112 512 64
WIRE -192 128 -512 128
WIRE -16 128 -16 -32
WIRE -16 128 -112 128
WIRE 80 128 -16 128
WIRE 1104 128 1024 128
WIRE 1280 128 1184 128
WIRE 80 160 80 128
WIRE 176 160 80 160
WIRE 240 160 240 96
WIRE 384 176 384 64
WIRE 384 176 272 176
WIRE 176 192 -32 192
WIRE 1200 224 1168 224
WIRE -32 256 -32 192
WIRE 240 256 240 192
WIRE 240 256 144 256
WIRE 512 304 512 192
WIRE 544 304 512 304
WIRE 720 304 624 304
WIRE 720 368 720 304
WIRE 1024 368 1024 128
WIRE 1024 368 720 368
WIRE 1104 368 1024 368
WIRE 1168 368 1168 304
WIRE 1280 384 1280 128
WIRE 1280 384 1200 384
WIRE 1408 384 1280 384
WIRE -32 400 -32 336
WIRE 1104 400 992 400
WIRE 176 432 80 432
WIRE 336 432 240 432
WIRE 1168 464 1168 400
WIRE 992 480 992 400
WIRE 80 528 80 432
WIRE 176 528 80 528
WIRE 336 528 336 432
WIRE 336 528 256 528
WIRE 192 576 160 576
WIRE 992 640 992 560
WIRE 256 656 160 656
WIRE 80 704 80 528
WIRE 80 704 -96 704
WIRE 192 704 80 704
WIRE 256 704 256 656
WIRE 336 720 336 528
WIRE 336 720 288 720
WIRE 448 720 336 720
WIRE 192 736 96 736
WIRE -512 768 -512 128
WIRE -512 768 -592 768
WIRE -192 768 -512 768
WIRE -96 768 -96 704
WIRE -96 768 -128 768
WIRE 256 800 256 736
WIRE 256 800 176 800
WIRE 448 800 448 720
WIRE 96 816 96 736
WIRE 448 1008 448 880
WIRE 512 1008 448 1008
WIRE 720 1008 720 368
WIRE 720 1008 592 1008
WIRE 96 1040 96 896
FLAG 96 1040 0
FLAG -32 400 0
FLAG 992 640 0
FLAG 176 880 0
FLAG 1168 544 0
FLAG 1200 224 0
FLAG 144 16 0
FLAG 144 336 0
FLAG 192 576 0
SYMBOL LMX24_LM2902 240 176 R0
SYMATTR InstName U1
SYMBOL LMX24_LM2902 256 720 R0
SYMATTR InstName U2
SYMBOL LMX24_LM2902 1168 384 R0
SYMATTR InstName U3
SYMBOL res 288 -48 R90
WINDOW 0 0 56 VBottom 2
WINDOW 3 32 56 VTop 2
SYMATTR InstName R1
SYMATTR Value 10k
SYMBOL res -96 112 R90
WINDOW 0 0 56 VBottom 2
WINDOW 3 32 56 VTop 2
SYMATTR InstName R2
SYMATTR Value 10k
SYMBOL res -16 352 R180
WINDOW 0 36 76 Left 2
WINDOW 3 36 40 Left 2
SYMATTR InstName R3
SYMBOL res 112 912 R180
WINDOW 0 36 76 Left 2
WINDOW 3 36 40 Left 2
SYMATTR InstName R4
SYMATTR Value 10k
SYMBOL res 160 544 R270
WINDOW 0 32 56 VTop 2
WINDOW 3 0 56 VBottom 2
SYMATTR InstName R5
SYMATTR Value 10k
SYMBOL res 496 1024 R270
WINDOW 0 32 56 VTop 2
WINDOW 3 0 56 VBottom 2
SYMATTR InstName R6
SYMATTR Value 10k
SYMBOL res 528 320 R270
WINDOW 0 32 56 VTop 2
WINDOW 3 0 56 VBottom 2
SYMATTR InstName R7
SYMATTR Value 10k
SYMBOL res 1088 144 R270
WINDOW 0 32 56 VTop 2
WINDOW 3 0 56 VBottom 2
SYMATTR InstName R8
SYMATTR Value 10k
SYMBOL res 976 464 R0
SYMATTR InstName R9
SYMATTR Value 10k
SYMBOL cap 240 416 R90
WINDOW 0 0 32 VBottom 2
WINDOW 3 32 32 VTop 2
SYMATTR InstName C1
SYMATTR Value 0.1µ
SYMBOL cap -128 752 R90
WINDOW 0 0 32 VBottom 2
WINDOW 3 32 32 VTop 2
SYMATTR InstName C2
SYMATTR Value 0.1µ
SYMBOL res 432 784 R0
SYMATTR InstName R10
SYMATTR Value 10k
SYMBOL res 496 96 R0
SYMATTR InstName R11
SYMATTR Value 10k
SYMBOL voltage 144 352 R180
WINDOW 0 24 96 Left 2
WINDOW 3 24 16 Left 2
WINDOW 123 0 0 Left 0
WINDOW 39 0 0 Left 0
SYMATTR InstName V2
SYMATTR Value 9v
SYMBOL voltage 1168 560 R180
WINDOW 0 24 96 Left 2
WINDOW 3 24 16 Left 2
WINDOW 123 0 0 Left 0
WINDOW 39 0 0 Left 0
SYMATTR InstName V3
SYMATTR Value 9v
SYMBOL voltage 1168 320 R180
WINDOW 0 24 96 Left 2
WINDOW 3 24 16 Left 2
WINDOW 123 0 0 Left 0
WINDOW 39 0 0 Left 0
SYMATTR InstName V4
SYMATTR Value 9v
SYMBOL voltage 160 672 R180
WINDOW 0 24 96 Left 2
WINDOW 3 24 16 Left 2
WINDOW 123 0 0 Left 0
WINDOW 39 0 0 Left 0
SYMATTR InstName V5
SYMATTR Value 9v
SYMBOL voltage 176 784 R0
WINDOW 123 0 0 Left 0
WINDOW 39 0 0 Left 0
SYMATTR InstName V6
SYMATTR Value 9v
SYMBOL voltage 112 112 R180
WINDOW 0 24 96 Left 2
WINDOW 3 24 16 Left 2
SYMATTR InstName V1
SYMATTR Value 9v
